<?xml version="1.0" encoding="UTF-8"?>

<!-- generated on 2023-09-17 12:40:16 by Eclipse SUMO netedit Version 1.18.0
<configuration xmlns:xsi="http://www.w3.org/2001/XMLSchema-instance" xsi:noNamespaceSchemaLocation="http://sumo.dlr.de/xsd/neteditConfiguration.xsd">

    <input>
        <sumo-net-file value="/home/nikitak/cloud/yandex/Documents/City/Проекты/Дороги/корабельная_сторона/transport_models/proposed/proposed.net.xml"/>
    </input>

    <output>
        <output-file value="/home/nikitak/cloud/yandex/Documents/City/Проекты/Дороги/корабельная_сторона/transport_models/proposed/proposed.net.xml"/>
    </output>

    <processing>
        <geometry.min-radius.fix.railways value="false"/>
        <geometry.max-grade.fix value="false"/>
        <offset.disable-normalization value="true"/>
        <lefthand value="0"/>
    </processing>

    <junctions>
        <no-turnarounds value="true"/>
        <junctions.corner-detail value="5"/>
        <junctions.limit-turn-speed value="5.50"/>
        <rectangular-lane-cut value="0"/>
    </junctions>

    <pedestrian>
        <walkingareas value="0"/>
    </pedestrian>

</configuration>
-->

<net version="1.16" junctionCornerDetail="5" limitTurnSpeed="5.50" xmlns:xsi="http://www.w3.org/2001/XMLSchema-instance" xsi:noNamespaceSchemaLocation="http://sumo.dlr.de/xsd/net_file.xsd">

    <location netOffset="-541652.66,-4937633.96" convBoundary="0.00,0.00,3356.44,2832.78" origBoundary="28.979318,41.023197,33.567070,44.616216" projParameter="+proj=utm +zone=36 +ellps=WGS84 +datum=WGS84 +units=m +no_defs"/>

    <type id="highway.footway" priority="1" numLanes="1" speed="2.78" allow="pedestrian" oneway="1" width="2.00"/>
    <type id="highway.path" priority="1" numLanes="1" speed="5.56" allow="pedestrian bicycle" oneway="0" width="2.00"/>
    <type id="highway.pedestrian" priority="1" numLanes="1" speed="2.78" allow="pedestrian" oneway="1" width="2.00"/>
    <type id="highway.primary" priority="12" numLanes="2" speed="27.78" disallow="tram rail_urban rail rail_electric rail_fast ship" oneway="0"/>
    <type id="highway.raceway" priority="15" numLanes="2" speed="83.33" allow="vip" oneway="0"/>
    <type id="highway.residential" priority="3" numLanes="1" speed="13.89" disallow="tram rail_urban rail rail_electric rail_fast ship" oneway="0"/>
    <type id="highway.secondary" priority="11" numLanes="1" speed="27.78" disallow="tram rail_urban rail rail_electric rail_fast ship" oneway="0"/>
    <type id="highway.service" priority="1" numLanes="1" speed="5.56" allow="pedestrian delivery bicycle" oneway="0"/>
    <type id="highway.steps" priority="1" numLanes="1" speed="1.39" allow="pedestrian" oneway="1" width="2.00"/>
    <type id="highway.tertiary" priority="10" numLanes="1" speed="22.22" disallow="tram rail_urban rail rail_electric rail_fast ship" oneway="0"/>
    <type id="highway.track" priority="1" numLanes="1" speed="5.56" allow="pedestrian motorcycle moped bicycle" oneway="0"/>
    <type id="highway.unclassified" priority="4" numLanes="1" speed="13.89" disallow="tram rail_urban rail rail_electric rail_fast ship" oneway="0"/>
    <type id="railway.rail" priority="20" numLanes="1" speed="44.44" allow="rail" oneway="1"/>

    <edge id=":10115906165_0" function="internal">
        <lane id=":10115906165_0_0" index="0" disallow="tram rail_urban rail rail_electric rail_fast ship" speed="3.65" length="4.67" shape="105.00,1352.31 104.90,1350.88 105.30,1350.07 106.17,1349.90 107.54,1350.37"/>
    </edge>
    <edge id=":1059189954_0" function="internal">
        <lane id=":1059189954_0_0" index="0" disallow="tram rail_urban rail rail_electric rail_fast ship" speed="7.83" length="1.59" shape="2319.17,1223.97 2319.24,1224.67 2319.23,1225.15 2319.11,1225.63 2318.86,1226.29"/>
        <lane id=":1059189954_0_1" index="1" disallow="tram rail_urban rail rail_electric rail_fast ship" speed="16.67" length="1.59" shape="2315.99,1224.34 2316.01,1224.57 2316.01,1224.73 2315.97,1224.89 2315.89,1225.11"/>
    </edge>
    <edge id=":1059190026_0" function="internal">
        <lane id=":1059190026_0_0" index="0" allow="pedestrian delivery bicycle" speed="5.90" length="6.83" shape="2258.63,1070.76 2258.46,1069.35 2259.01,1068.05 2260.28,1066.86 2262.26,1065.77"/>
    </edge>
    <edge id=":1059190026_1" function="internal">
        <lane id=":1059190026_1_0" index="0" disallow="tram rail_urban rail rail_electric rail_fast ship" speed="16.67" length="8.27" shape="2254.63,1068.96 2262.26,1065.77"/>
    </edge>
    <edge id=":1059190026_2" function="internal">
        <lane id=":1059190026_2_0" index="0" allow="pedestrian delivery bicycle" speed="6.04" length="7.86" shape="2254.63,1068.96 2257.28,1068.12 2259.34,1067.96 2260.79,1068.48 2261.64,1069.68"/>
    </edge>
    <edge id=":1059190292_0" function="internal">
        <lane id=":1059190292_0_0" index="0" allow="bus" speed="6.96" length="4.88" shape="2313.69,1054.53 2312.77,1055.37 2312.10,1056.35 2311.66,1057.46 2311.47,1058.69"/>
        <lane id=":1059190292_0_1" index="1" disallow="tram rail_urban rail rail_electric rail_fast ship" speed="8.58" length="7.66" shape="2311.77,1051.97 2310.33,1053.30 2309.26,1054.83 2308.58,1056.57 2308.27,1058.51"/>
    </edge>
    <edge id=":1059211619_0" function="internal">
        <lane id=":1059211619_0_0" index="0" disallow="tram rail_urban rail rail_electric rail_fast ship" speed="13.89" length="8.38" shape="1590.73,1488.10 1582.37,1487.51"/>
    </edge>
    <edge id=":1059211619_1" function="internal">
        <lane id=":1059211619_1_0" index="0" disallow="tram rail_urban rail rail_electric rail_fast ship" speed="7.26" length="11.60" shape="1590.73,1488.10 1588.40,1487.42 1586.82,1485.67 1586.00,1482.85 1585.92,1478.97"/>
    </edge>
    <edge id=":1059211619_2" function="internal">
        <lane id=":1059211619_2_0" index="0" disallow="tram rail_urban rail rail_electric rail_fast ship" speed="3.65" length="4.67" shape="1590.73,1488.10 1589.58,1487.24 1589.22,1486.42 1589.66,1485.64 1590.91,1484.91"/>
    </edge>
    <edge id=":1059211619_3" function="internal">
        <lane id=":1059211619_3_0" index="0" disallow="tram rail_urban rail rail_electric rail_fast ship" speed="5.73" length="6.95" shape="1582.70,1484.32 1583.97,1484.10 1584.92,1483.13 1585.58,1481.42 1585.92,1478.97"/>
    </edge>
    <edge id=":1059211619_4" function="internal">
        <lane id=":1059211619_4_0" index="0" disallow="tram rail_urban rail rail_electric rail_fast ship" speed="13.89" length="8.23" shape="1582.70,1484.32 1590.91,1484.91"/>
    </edge>
    <edge id=":1059211619_5" function="internal">
        <lane id=":1059211619_5_0" index="0" disallow="tram rail_urban rail rail_electric rail_fast ship" speed="3.65" length="4.67" shape="1582.70,1484.32 1583.81,1485.24 1584.13,1486.08 1583.65,1486.83 1582.37,1487.51"/>
    </edge>
    <edge id=":1059211619_6" function="internal">
        <lane id=":1059211619_6_0" index="0" disallow="tram rail_urban rail rail_electric rail_fast ship" speed="5.95" length="7.12" shape="1585.02,1493.40 1584.98,1490.93 1584.52,1489.13 1583.65,1487.99 1582.37,1487.51"/>
    </edge>
    <edge id=":1059211619_7" function="internal">
        <lane id=":1059211619_7_0" index="0" disallow="tram rail_urban rail rail_electric rail_fast ship" speed="16.67" length="14.45" shape="1585.02,1493.40 1585.92,1478.97"/>
    </edge>
    <edge id=":1059211619_8" function="internal">
        <lane id=":1059211619_8_0" index="0" disallow="tram rail_urban rail rail_electric rail_fast ship" speed="7.29" length="11.58" shape="1585.02,1493.40 1585.58,1489.57 1586.74,1486.88 1588.52,1485.33 1590.91,1484.91"/>
    </edge>
    <edge id=":1059211637_0" function="internal">
        <lane id=":1059211637_0_0" index="0" disallow="tram rail_urban rail rail_electric rail_fast ship" speed="13.89" length="8.55" shape="1582.68,1626.64 1580.28,1627.47 1578.60,1627.97 1576.89,1628.23 1574.36,1628.29"/>
    </edge>
    <edge id=":1059211637_1" function="internal">
        <lane id=":1059211637_1_0" index="0" disallow="tram rail_urban rail rail_electric rail_fast ship" speed="6.43" length="11.34" shape="1582.68,1626.64 1580.38,1626.81 1578.82,1625.53 1578.00,1622.80 1577.91,1618.63"/>
    </edge>
    <edge id=":1059211637_2" function="internal">
        <lane id=":1059211637_2_0" index="0" disallow="tram rail_urban rail rail_electric rail_fast ship" speed="3.65" length="4.67" shape="1582.68,1626.64 1581.28,1626.28 1580.64,1625.66 1580.76,1624.77 1581.63,1623.62"/>
    </edge>
    <edge id=":1059211637_3" function="internal">
        <lane id=":1059211637_3_0" index="0" disallow="tram rail_urban rail rail_electric rail_fast ship" speed="6.30" length="8.07" shape="1574.37,1625.09 1575.78,1624.69 1576.84,1623.48 1577.55,1621.46 1577.91,1618.63"/>
    </edge>
    <edge id=":1059211637_4" function="internal">
        <lane id=":1059211637_4_0" index="0" disallow="tram rail_urban rail rail_electric rail_fast ship" speed="13.89" length="7.46" shape="1574.37,1625.09 1576.57,1625.03 1578.07,1624.80 1579.53,1624.34 1581.63,1623.62"/>
    </edge>
    <edge id=":1059211637_5" function="internal">
        <lane id=":1059211637_5_0" index="0" disallow="tram rail_urban rail rail_electric rail_fast ship" speed="3.65" length="4.67" shape="1574.37,1625.09 1575.57,1625.89 1575.97,1626.70 1575.56,1627.49 1574.36,1628.29"/>
    </edge>
    <edge id=":1059211637_6" function="internal">
        <lane id=":1059211637_6_0" index="0" disallow="tram rail_urban rail rail_electric rail_fast ship" speed="5.72" length="7.04" shape="1577.01,1633.98 1576.97,1631.50 1576.52,1629.72 1575.65,1628.65 1574.36,1628.29"/>
    </edge>
    <edge id=":1059211637_7" function="internal">
        <lane id=":1059211637_7_0" index="0" disallow="tram rail_urban rail rail_electric rail_fast ship" speed="16.67" length="15.38" shape="1577.01,1633.98 1577.91,1618.63"/>
    </edge>
    <edge id=":1059211637_8" function="internal">
        <lane id=":1059211637_8_0" index="0" disallow="tram rail_urban rail rail_electric rail_fast ship" speed="8.68" length="11.94" shape="1577.01,1633.98 1577.50,1629.96 1578.44,1626.89 1579.81,1624.78 1581.63,1623.62"/>
    </edge>
    <edge id=":1059211640_0" function="internal">
        <lane id=":1059211640_0_0" index="0" disallow="tram rail_urban rail rail_electric rail_fast ship" speed="13.89" length="14.40" shape="1661.68,1620.29 1658.11,1634.24"/>
    </edge>
    <edge id=":1059211640_1" function="internal">
        <lane id=":1059211640_1_0" index="0" disallow="tram rail_urban rail rail_electric rail_fast ship" speed="8.94" length="3.57" shape="1661.68,1620.29 1660.20,1623.54"/>
    </edge>
    <edge id=":1059211640_2" function="internal">
        <lane id=":1059211640_2_0" index="0" disallow="tram rail_urban rail rail_electric rail_fast ship" speed="3.65" length="1.44" shape="1661.68,1620.29 1660.59,1621.23"/>
    </edge>
    <edge id=":1059211640_9" function="internal">
        <lane id=":1059211640_9_0" index="0" disallow="tram rail_urban rail rail_electric rail_fast ship" speed="8.94" length="11.00" shape="1660.20,1623.54 1657.83,1625.83 1654.57,1627.17 1650.41,1627.54"/>
    </edge>
    <edge id=":1059211640_10" function="internal">
        <lane id=":1059211640_10_0" index="0" disallow="tram rail_urban rail rail_electric rail_fast ship" speed="3.65" length="3.23" shape="1660.59,1621.23 1659.71,1621.40 1659.05,1620.80 1658.59,1619.44"/>
    </edge>
    <edge id=":1059211640_3" function="internal">
        <lane id=":1059211640_3_0" index="0" disallow="tram rail_urban rail rail_electric rail_fast ship" speed="7.60" length="10.29" shape="1650.48,1624.34 1653.51,1624.09 1655.87,1623.19 1657.56,1621.64 1658.59,1619.44"/>
    </edge>
    <edge id=":1059211640_4" function="internal">
        <lane id=":1059211640_4_0" index="0" disallow="tram rail_urban rail rail_electric rail_fast ship" speed="7.67" length="15.07" shape="1650.48,1624.34 1654.69,1625.05 1657.36,1626.93 1658.50,1629.99 1658.11,1634.24"/>
    </edge>
    <edge id=":1059211640_5" function="internal">
        <lane id=":1059211640_5_0" index="0" disallow="tram rail_urban rail rail_electric rail_fast ship" speed="3.65" length="4.67" shape="1650.48,1624.34 1651.66,1625.17 1652.05,1625.98 1651.63,1626.77 1650.41,1627.54"/>
    </edge>
    <edge id=":1059211640_6" function="internal">
        <lane id=":1059211640_6_0" index="0" disallow="tram rail_urban rail rail_electric rail_fast ship" speed="6.10" length="9.06" shape="1655.00,1633.49 1655.24,1630.94 1654.55,1629.10 1652.94,1627.97 1650.41,1627.54"/>
    </edge>
    <edge id=":1059211640_7" function="internal">
        <lane id=":1059211640_7_0" index="0" disallow="tram rail_urban rail rail_electric rail_fast ship" speed="13.89" length="14.51" shape="1655.00,1633.49 1658.59,1619.44"/>
    </edge>
    <edge id=":1059211640_8" function="internal">
        <lane id=":1059211640_8_0" index="0" disallow="tram rail_urban rail rail_electric rail_fast ship" speed="3.65" length="1.44" shape="1655.00,1633.49 1656.06,1632.51"/>
    </edge>
    <edge id=":1059211640_11" function="internal">
        <lane id=":1059211640_11_0" index="0" disallow="tram rail_urban rail rail_electric rail_fast ship" speed="3.65" length="3.23" shape="1656.06,1632.51 1656.93,1632.31 1657.62,1632.88 1658.11,1634.24"/>
    </edge>
    <edge id=":1059211643_0" function="internal">
        <lane id=":1059211643_0_0" index="0" disallow="tram rail_urban rail rail_electric rail_fast ship" speed="13.89" length="14.28" shape="1645.56,1490.79 1631.31,1489.83"/>
    </edge>
    <edge id=":1059211643_1" function="internal">
        <lane id=":1059211643_1_0" index="0" disallow="tram rail_urban rail rail_electric rail_fast ship" speed="7.73" length="4.08" shape="1645.56,1490.79 1641.59,1489.85"/>
    </edge>
    <edge id=":1059211643_2" function="internal">
        <lane id=":1059211643_2_0" index="0" disallow="tram rail_urban rail rail_electric rail_fast ship" speed="3.65" length="1.44" shape="1645.56,1490.79 1644.44,1489.89"/>
    </edge>
    <edge id=":1059211643_9" function="internal">
        <lane id=":1059211643_9_0" index="0" disallow="tram rail_urban rail rail_electric rail_fast ship" speed="7.73" length="10.79" shape="1641.59,1489.85 1641.50,1489.83 1638.95,1487.80 1637.91,1484.71 1638.38,1480.56"/>
    </edge>
    <edge id=":1059211643_10" function="internal">
        <lane id=":1059211643_10_0" index="0" disallow="tram rail_urban rail rail_electric rail_fast ship" speed="3.65" length="3.23" shape="1644.44,1489.89 1644.11,1489.06 1644.58,1488.29 1645.85,1487.61"/>
    </edge>
    <edge id=":1059211643_3" function="internal">
        <lane id=":1059211643_3_0" index="0" disallow="tram rail_urban rail rail_electric rail_fast ship" speed="6.18" length="9.05" shape="1641.47,1481.38 1641.19,1483.90 1641.82,1485.78 1643.37,1487.02 1645.85,1487.61"/>
    </edge>
    <edge id=":1059211643_4" function="internal">
        <lane id=":1059211643_4_0" index="0" disallow="tram rail_urban rail rail_electric rail_fast ship" speed="8.78" length="14.44" shape="1641.47,1481.38 1639.98,1485.20 1637.78,1487.88 1634.89,1489.42 1631.31,1489.83"/>
    </edge>
    <edge id=":1059211643_5" function="internal">
        <lane id=":1059211643_5_0" index="0" disallow="tram rail_urban rail rail_electric rail_fast ship" speed="3.65" length="4.67" shape="1641.47,1481.38 1640.40,1482.33 1639.52,1482.52 1638.85,1481.93 1638.38,1480.56"/>
    </edge>
    <edge id=":1059211643_6" function="internal">
        <lane id=":1059211643_6_0" index="0" disallow="tram rail_urban rail rail_electric rail_fast ship" speed="7.41" length="10.06" shape="1631.45,1486.63 1633.86,1486.33 1635.82,1485.22 1637.33,1483.30 1638.38,1480.56"/>
    </edge>
    <edge id=":1059211643_7" function="internal">
        <lane id=":1059211643_7_0" index="0" disallow="tram rail_urban rail rail_electric rail_fast ship" speed="13.89" length="14.43" shape="1631.45,1486.63 1645.85,1487.61"/>
    </edge>
    <edge id=":1059211643_8" function="internal">
        <lane id=":1059211643_8_0" index="0" disallow="tram rail_urban rail rail_electric rail_fast ship" speed="3.65" length="1.44" shape="1631.45,1486.63 1632.61,1487.48"/>
    </edge>
    <edge id=":1059211643_11" function="internal">
        <lane id=":1059211643_11_0" index="0" disallow="tram rail_urban rail rail_electric rail_fast ship" speed="3.65" length="3.23" shape="1632.61,1487.48 1632.98,1488.29 1632.55,1489.08 1631.31,1489.83"/>
    </edge>
    <edge id=":1059211674_0" function="internal">
        <lane id=":1059211674_0_0" index="0" disallow="tram rail_urban rail rail_electric rail_fast ship" speed="3.65" length="4.67" shape="1454.07,1625.56 1454.93,1624.40 1455.75,1624.04 1456.53,1624.48 1457.27,1625.72"/>
    </edge>
    <edge id=":1059211764_0" function="internal">
        <lane id=":1059211764_0_0" index="0" disallow="tram rail_urban rail rail_electric rail_fast ship" speed="3.65" length="4.67" shape="1404.56,1618.40 1405.92,1618.87 1406.52,1619.54 1406.34,1620.41 1405.38,1621.50"/>
    </edge>
    <edge id=":1059211775_0" function="internal">
        <lane id=":1059211775_0_0" index="0" allow="pedestrian bicycle" speed="5.76" length="8.04" width="2.00" shape="1699.18,1496.29 1697.78,1496.15 1696.52,1496.99 1695.40,1498.81 1694.42,1501.62"/>
    </edge>
    <edge id=":1059211775_1" function="internal">
        <lane id=":1059211775_1_0" index="0" allow="pedestrian bicycle" speed="9.72" length="12.38" width="2.00" shape="1699.18,1496.29 1696.05,1495.24 1693.25,1494.83 1690.37,1494.71 1687.02,1494.53"/>
    </edge>
    <edge id=":1059211775_2" function="internal">
        <lane id=":1059211775_2_0" index="0" allow="pedestrian bicycle" speed="7.48" length="11.39" width="2.00" shape="1699.18,1496.29 1696.72,1494.74 1695.25,1492.64 1694.76,1490.00 1695.25,1486.81"/>
    </edge>
    <edge id=":1059211775_3" function="internal">
        <lane id=":1059211775_3_0" index="0" allow="pedestrian bicycle" speed="2.89" length="2.93" width="2.00" shape="1699.18,1496.29 1698.65,1495.56 1698.59,1495.01 1699.00,1494.63 1699.88,1494.42"/>
    </edge>
    <edge id=":1059211775_4" function="internal">
        <lane id=":1059211775_4_0" index="0" allow="pedestrian bicycle" speed="6.30" length="7.56" width="2.00" shape="1698.33,1487.69 1697.85,1490.13 1697.95,1492.06 1698.62,1493.49 1699.88,1494.42"/>
    </edge>
    <edge id=":1059211775_5" function="internal">
        <lane id=":1059211775_5_0" index="0" disallow="tram rail_urban rail rail_electric rail_fast ship" speed="13.89" length="14.46" shape="1698.33,1487.69 1694.42,1501.62"/>
    </edge>
    <edge id=":1059211775_6" function="internal">
        <lane id=":1059211775_6_0" index="0" disallow="tram rail_urban rail rail_electric rail_fast ship" speed="8.70" length="3.77" shape="1698.33,1487.69 1696.80,1490.99 1696.71,1491.08"/>
    </edge>
    <edge id=":1059211775_7" function="internal">
        <lane id=":1059211775_7_0" index="0" disallow="tram rail_urban rail rail_electric rail_fast ship" speed="3.65" length="1.44" shape="1698.33,1487.69 1697.23,1488.63"/>
    </edge>
    <edge id=":1059211775_16" function="internal">
        <lane id=":1059211775_16_0" index="0" disallow="tram rail_urban rail rail_electric rail_fast ship" speed="8.70" length="10.75" shape="1696.71,1491.08 1694.40,1493.23 1691.14,1494.41 1687.02,1494.53"/>
    </edge>
    <edge id=":1059211775_17" function="internal">
        <lane id=":1059211775_17_0" index="0" disallow="tram rail_urban rail rail_electric rail_fast ship" speed="3.65" length="3.23" shape="1697.23,1488.63 1696.35,1488.79 1695.69,1488.19 1695.25,1486.81"/>
    </edge>
    <edge id=":1059211775_8" function="internal">
        <lane id=":1059211775_8_0" index="0" disallow="tram rail_urban rail rail_electric rail_fast ship" speed="7.33" length="10.04" shape="1687.30,1491.34 1690.23,1491.28 1692.53,1490.50 1694.21,1489.01 1695.25,1486.81"/>
    </edge>
    <edge id=":1059211775_9" function="internal">
        <lane id=":1059211775_9_0" index="0" allow="pedestrian bicycle" speed="9.72" length="13.01" width="2.00" shape="1687.30,1491.34 1690.72,1491.73 1693.74,1492.30 1696.68,1493.16 1699.88,1494.42"/>
    </edge>
    <edge id=":1059211775_10" function="internal">
        <lane id=":1059211775_10_0" index="0" disallow="tram rail_urban rail rail_electric rail_fast ship" speed="7.72" length="14.92" shape="1687.30,1491.34 1691.39,1492.31 1693.94,1494.35 1694.95,1497.45 1694.42,1501.62"/>
    </edge>
    <edge id=":1059211775_11" function="internal">
        <lane id=":1059211775_11_0" index="0" disallow="tram rail_urban rail rail_electric rail_fast ship" speed="3.65" length="4.67" shape="1687.30,1491.34 1688.43,1492.25 1688.75,1493.08 1688.28,1493.84 1687.02,1494.53"/>
    </edge>
    <edge id=":1059211775_12" function="internal">
        <lane id=":1059211775_12_0" index="0" disallow="tram rail_urban rail rail_electric rail_fast ship" speed="6.15" length="9.06" shape="1691.33,1500.76 1691.65,1498.24 1691.04,1496.35 1689.50,1495.12 1687.02,1494.53"/>
    </edge>
    <edge id=":1059211775_13" function="internal">
        <lane id=":1059211775_13_0" index="0" disallow="tram rail_urban rail rail_electric rail_fast ship" speed="13.89" length="14.49" shape="1691.33,1500.76 1695.25,1486.81"/>
    </edge>
    <edge id=":1059211775_14" function="internal">
        <lane id=":1059211775_14_0" index="0" allow="pedestrian bicycle" speed="6.94" length="4.71" width="2.00" shape="1691.33,1500.76 1692.64,1498.14 1693.86,1496.85"/>
    </edge>
    <edge id=":1059211775_15" function="internal">
        <lane id=":1059211775_15_0" index="0" disallow="tram rail_urban rail rail_electric rail_fast ship" speed="3.65" length="1.44" shape="1691.33,1500.76 1692.42,1499.82"/>
    </edge>
    <edge id=":1059211775_18" function="internal">
        <lane id=":1059211775_18_0" index="0" allow="pedestrian bicycle" speed="6.94" length="6.85" width="2.00" shape="1693.86,1496.85 1694.82,1495.81 1697.40,1494.37 1699.88,1494.42"/>
    </edge>
    <edge id=":1059211775_19" function="internal">
        <lane id=":1059211775_19_0" index="0" disallow="tram rail_urban rail rail_electric rail_fast ship" speed="3.65" length="3.23" shape="1692.42,1499.82 1693.30,1499.65 1693.97,1500.25 1694.42,1501.62"/>
    </edge>
    <edge id=":1059211848_0" function="internal">
        <lane id=":1059211848_0_0" index="0" disallow="tram rail_urban rail rail_electric rail_fast ship" speed="3.65" length="4.67" shape="1635.96,1722.54 1634.88,1723.50 1634.00,1723.68 1633.33,1723.09 1632.86,1721.73"/>
    </edge>
    <edge id=":1059234116_0" function="internal">
        <lane id=":1059234116_0_0" index="0" disallow="tram rail_urban rail rail_electric rail_fast ship" speed="11.11" length="10.99" shape="2117.11,2086.32 2116.14,2097.26"/>
    </edge>
    <edge id=":1059234116_1" function="internal">
        <lane id=":1059234116_1_0" index="0" disallow="tram rail_urban rail rail_electric rail_fast ship" speed="7.11" length="4.93" shape="2117.11,2086.32 2116.34,2090.51 2116.02,2091.10"/>
    </edge>
    <edge id=":1059234116_6" function="internal">
        <lane id=":1059234116_6_0" index="0" disallow="tram rail_urban rail rail_electric rail_fast ship" speed="7.11" length="7.77" shape="2116.02,2091.10 2114.87,2093.23 2112.72,2094.49 2109.87,2094.27"/>
    </edge>
    <edge id=":1059234116_2" function="internal">
        <lane id=":1059234116_2_0" index="0" disallow="tram rail_urban rail rail_electric rail_fast ship" speed="5.41" length="6.85" shape="2110.79,2091.20 2111.97,2091.17 2112.88,2090.30 2113.53,2088.59 2113.92,2086.04"/>
    </edge>
    <edge id=":1059234116_3" function="internal">
        <lane id=":1059234116_3_0" index="0" disallow="tram rail_urban rail rail_electric rail_fast ship" speed="6.93" length="8.83" shape="2110.79,2091.20 2113.28,2092.23 2115.00,2093.58 2115.96,2095.26 2116.14,2097.26"/>
    </edge>
    <edge id=":1059234116_4" function="internal">
        <lane id=":1059234116_4_0" index="0" disallow="tram rail_urban rail rail_electric rail_fast ship" speed="5.12" length="4.41" shape="2112.95,2096.96 2112.82,2096.15 2112.26,2095.42 2111.28,2094.80 2109.87,2094.27"/>
    </edge>
    <edge id=":1059234116_5" function="internal">
        <lane id=":1059234116_5_0" index="0" disallow="tram rail_urban rail rail_electric rail_fast ship" speed="11.11" length="10.96" shape="2112.95,2096.96 2113.92,2086.04"/>
    </edge>
    <edge id=":1059234124_0" function="internal">
        <lane id=":1059234124_0_0" index="0" disallow="tram rail_urban rail rail_electric rail_fast ship" speed="16.67" length="17.34" shape="2217.26,2288.91 2214.97,2285.48 2212.08,2281.95 2208.87,2278.72 2205.64,2276.19"/>
    </edge>
    <edge id=":1059234124_1" function="internal">
        <lane id=":1059234124_1_0" index="0" disallow="tram rail_urban rail rail_electric rail_fast ship" speed="7.32" length="4.26" shape="2217.26,2288.91 2215.48,2285.04"/>
    </edge>
    <edge id=":1059234124_2" function="internal">
        <lane id=":1059234124_2_0" index="0" disallow="tram rail_urban rail rail_electric rail_fast ship" speed="3.69" length="1.60" shape="2217.26,2288.91 2216.99,2287.45 2217.03,2287.34"/>
    </edge>
    <edge id=":1059234124_9" function="internal">
        <lane id=":1059234124_9_0" index="0" disallow="tram rail_urban rail rail_electric rail_fast ship" speed="7.32" length="13.66" shape="2215.48,2285.04 2214.64,2283.22 2214.53,2279.46 2216.91,2277.63 2221.81,2277.73"/>
    </edge>
    <edge id=":1059234124_10" function="internal">
        <lane id=":1059234124_10_0" index="0" disallow="tram rail_urban rail rail_electric rail_fast ship" speed="3.69" length="3.20" shape="2217.03,2287.34 2217.29,2286.59 2218.17,2286.31 2219.61,2286.62"/>
    </edge>
    <edge id=":1059234124_3" function="internal">
        <lane id=":1059234124_3_0" index="0" disallow="tram rail_urban rail rail_electric rail_fast ship" speed="5.39" length="9.11" shape="2221.79,2280.97 2219.29,2280.92 2218.10,2281.84 2218.21,2283.74 2219.61,2286.62"/>
    </edge>
    <edge id=":1059234124_4" function="internal">
        <lane id=":1059234124_4_0" index="0" disallow="tram rail_urban rail rail_electric rail_fast ship" speed="15.28" length="16.93" shape="2221.79,2280.97 2217.77,2280.25 2213.44,2279.29 2209.24,2277.97 2205.64,2276.19"/>
    </edge>
    <edge id=":1059234124_5" function="internal">
        <lane id=":1059234124_5_0" index="0" disallow="tram rail_urban rail rail_electric rail_fast ship" speed="3.67" length="4.74" shape="2221.79,2280.97 2220.57,2280.15 2220.17,2279.34 2220.58,2278.53 2221.81,2277.73"/>
    </edge>
    <edge id=":1059234124_6" function="internal">
        <lane id=":1059234124_6_0" index="0" disallow="tram rail_urban rail rail_electric rail_fast ship" speed="15.28" length="15.13" shape="2207.39,2273.51 2210.72,2275.20 2214.32,2276.32 2218.06,2277.09 2221.81,2277.73"/>
    </edge>
    <edge id=":1059234124_7" function="internal">
        <lane id=":1059234124_7_0" index="0" disallow="tram rail_urban rail rail_electric rail_fast ship" speed="16.67" length="18.03" shape="2207.39,2273.51 2210.70,2276.11 2214.09,2279.49 2217.19,2283.16 2219.61,2286.62"/>
    </edge>
    <edge id=":1059234124_8" function="internal">
        <lane id=":1059234124_8_0" index="0" disallow="tram rail_urban rail rail_electric rail_fast ship" speed="3.65" length="1.44" shape="2207.39,2273.51 2207.96,2274.83"/>
    </edge>
    <edge id=":1059234124_11" function="internal">
        <lane id=":1059234124_11_0" index="0" disallow="tram rail_urban rail rail_electric rail_fast ship" speed="3.65" length="3.23" shape="2207.96,2274.83 2207.86,2275.72 2207.08,2276.18 2205.64,2276.19"/>
    </edge>
    <edge id=":1059234150_0" function="internal">
        <lane id=":1059234150_0_0" index="0" disallow="tram rail_urban rail rail_electric rail_fast ship" speed="11.11" length="19.60" shape="2123.84,1965.77 2122.56,1961.46 2120.71,1956.42 2118.47,1951.59 2115.97,1947.95"/>
    </edge>
    <edge id=":1059234150_1" function="internal">
        <lane id=":1059234150_1_0" index="0" allow="pedestrian delivery bicycle" speed="6.03" length="11.08" shape="2128.25,1955.77 2126.61,1955.79 2125.85,1957.33 2125.96,1960.38 2126.94,1964.95"/>
    </edge>
    <edge id=":1059234150_2" function="internal">
        <lane id=":1059234150_2_0" index="0" allow="pedestrian delivery bicycle" speed="8.33" length="13.19" shape="2118.30,1945.76 2120.81,1948.15 2123.33,1949.99 2126.09,1951.47 2129.32,1952.75"/>
    </edge>
    <edge id=":1059234150_3" function="internal">
        <lane id=":1059234150_3_0" index="0" disallow="tram rail_urban rail rail_electric rail_fast ship" speed="11.11" length="21.16" shape="2118.30,1945.76 2120.92,1949.61 2123.42,1954.91 2125.53,1960.43 2126.94,1964.95"/>
    </edge>
    <edge id=":1059234150_4" function="internal">
        <lane id=":1059234150_4_0" index="0" disallow="tram rail_urban rail rail_electric rail_fast ship" speed="8.78" length="4.96" shape="2118.30,1945.76 2120.35,1948.85 2120.56,1950.09"/>
    </edge>
    <edge id=":1059234150_6" function="internal">
        <lane id=":1059234150_6_0" index="0" disallow="tram rail_urban rail rail_electric rail_fast ship" speed="8.78" length="10.42" shape="2120.56,1950.09 2120.92,1952.20 2119.99,1955.80 2117.58,1959.66"/>
    </edge>
    <edge id=":1059234150_5" function="internal">
        <lane id=":1059234150_5_0" index="0" disallow="tram rail_urban rail rail_electric rail_fast ship" speed="7.43" length="10.76" shape="2115.07,1957.68 2116.85,1954.89 2117.59,1952.34 2117.30,1950.03 2115.97,1947.95"/>
    </edge>
    <edge id=":1059256363_0" function="internal">
        <lane id=":1059256363_0_0" index="0" disallow="tram rail_urban rail rail_electric rail_fast ship" speed="6.38" length="9.04" shape="1646.50,1852.34 1644.01,1852.51 1642.22,1853.45 1641.13,1855.15 1640.73,1857.61"/>
    </edge>
    <edge id=":1059256363_1" function="internal">