<?xml version="1.0" encoding="UTF-8"?>

<!-- generated on 2023-05-23 10:51:04 by Eclipse SUMO netedit Version 1.15.0
-->

<routes xmlns:xsi="http://www.w3.org/2001/XMLSchema-instance" xsi:noNamespaceSchemaLocation="http://sumo.dlr.de/xsd/routes_file.xsd">
    <!-- VTypes -->
    <vType id="DEFAULT_VEHTYPE" maxSpeed="45.00" emissionClass="HBEFA3/PC_G_EU5"/>
    <vType id="bbus" length="12.00" maxSpeed="35.00" vClass="bus" color="blue" accel="1.2" decel="2.5" sigma="0.1" />
    <vType id="mbus" length="7.7" maxSpeed="41.00" vClass="bus" color="green" accel="1.2" decel="2.5" sigma="0.1" />
    <vType id="sbus" length="5.6" maxSpeed="45.00" vClass="bus" color="#BF40BF" accel="1.2" decel="2.5" sigma="0.1" />
    <!-- Routes -->
    <flow id="flow_0" begin="0.00" from="-93252647#3" to="E3" via="-532233285#8 -367713588 -301445397" end="3600.00" vehsPerHour="600"/>
    <flow id="flow_01" begin="0.00" from="-93252647#3" to="E3" via="-532233285#8 -367713588 -301445397" end="3600.00" vehsPerHour="10" type="sbus"/>
    <flow id="flow_02" begin="0.00" from="147537006#0" to="E3" via="-532233285#8 -367713588 -301445397" end="3600.00" vehsPerHour="3" type="bbus"/>

    <flow id="flow_1" begin="0.00" from="661676787#0" to="E3" via="292322817#1 24779808#13 -301445397" end="3600.00" vehsPerHour="800"/>
    <flow id="flow_2" begin="0.00" from="489418505#3" to="E3" via="E8 -301445397" end="3600.00" vehsPerHour="500"/>
    <flow id="flow_3" begin="0.00" from="821158552#0" to="E3" via="821158553#1 652690782" end="3600.00" vehsPerHour="1000"/>
    <flow id="flow_11" begin="0.00" from="661676787#0" to="E3" via="743552285#1 292322817#1 24779808#10 E1 -406553392 -814880024" end="3600.00" vehsPerHour="25" type="bbus">
        <stop busStop="bs_4" duration="20"/>
        <stop busStop="bs_3" duration="20"/>
        <stop busStop="bs_2" duration="20"/>
        <stop busStop="bs_0" duration="20"/>
        <stop busStop="bs_1" duration="20"/>
        <stop busStop="bs_10" duration="20"/>
    </flow>
    <flow id="flow_12" begin="0.00" from="661676787#0" to="E3" via="743552285#1 292322817#1 24779808#10 E1 -406553392 -814880024" end="3600.00" vehsPerHour="11" type="mbus">
        <stop busStop="bs_4" duration="20"/>
        <stop busStop="bs_3" duration="20"/>
        <stop busStop="bs_2" duration="20"/>
        <stop busStop="bs_0" duration="20"/>
        <stop busStop="bs_1" duration="20"/>
        <stop busStop="bs_10" duration="20"/>
    </flow>
    <flow id="flow_13" begin="0.00" from="661676787#0" to="E3" via="743552285#1 292322817#1 24779808#10 E1 -406553392 -814880024" end="3600.00" vehsPerHour="8" type="sbus">
        <stop busStop="bs_4" duration="20"/>
        <stop busStop="bs_3" duration="20"/>
        <stop busStop="bs_2" duration="20"/>
        <stop busStop="bs_0" duration="20"/>
        <stop busStop="bs_1" duration="20"/>
        <stop busStop="bs_10" duration="20"/>
    </flow>
    <flow id="flow_31" begin="0.00" from="821158552#0" to="E3" via="821158552#1 154286445#0 -406553392 -814880024" end="3600.00" vehsPerHour="20" type="bbus">
        <stop busStop="bs_9" duration="20"/>
        <stop busStop="bs_8" duration="20"/>
        <stop busStop="bs_1" duration="20"/>
        <stop busStop="bs_10" duration="20"/>
    </flow>
    <flow id="flow_32" begin="0.00" from="821158552#0" to="E3" via="821158552#1 154286445#0 -406553392 -814880024" end="3600.00" vehsPerHour="14" type="mbus">
        <stop busStop="bs_9" duration="20"/>
        <stop busStop="bs_8" duration="20"/>
        <stop busStop="bs_1" duration="20"/>
        <stop busStop="bs_10" duration="20"/>
    </flow>
    <flow id="flow_33" begin="0.00" from="821158552#0" to="E3" via="821158552#1 154286445#0 -406553392 -814880024" end="3600.00" vehsPerHour="13" type="sbus">
        <stop busStop="bs_9" duration="20"/>
        <stop busStop="bs_8" duration="20"/>
        <stop busStop="bs_1" duration="20"/>
        <stop busStop="bs_10" duration="20"/>
    </flow>
    <!-- 147537006#0 -->
</routes>
