<?xml version="1.0" encoding="UTF-8"?>

<!-- generated on 2023-05-23 10:51:04 by Eclipse SUMO netedit Version 1.15.0
-->

<routes xmlns:xsi="http://www.w3.org/2001/XMLSchema-instance" xsi:noNamespaceSchemaLocation="http://sumo.dlr.de/xsd/routes_file.xsd">
    <!-- VTypes -->
    <vType id="DEFAULT_VEHTYPE" maxSpeed="45.00" emissionClass="HBEFA3/PC_G_EU5"/>
    <vType id="bus" length="12.00" maxSpeed="35.00" vClass="bus" color="blue" accel="1.2" decel="2.5" sigma="0.1"/>
    <!-- Routes -->
    <flow id="flow_0" begin="0.00" from="-93252647#3" to="E3" via="-532233285#8 -367713588 -301445397" end="3600.00" vehsPerHour="600"/>
    <flow id="flow_1" begin="0.00" from="661676787#0" to="E3" via="292322817#1 24779808#13 -301445397" end="3600.00" vehsPerHour="800"/>
    <flow id="flow_2" begin="0.00" from="489418505#3" to="E3" via="E8 -301445397" end="3600.00" vehsPerHour="500"/>
    <flow id="flow_3" begin="0.00" from="821158552#0" to="E3" via="821158553#1 652690782" end="3600.00" vehsPerHour="1000"/>
</routes>
