<?xml version="1.0" encoding="UTF-8"?>

<!-- generated on 2023-05-31 18:46:22 by Eclipse SUMO netedit Version 1.15.0
<configuration xmlns:xsi="http://www.w3.org/2001/XMLSchema-instance" xsi:noNamespaceSchemaLocation="http://sumo.dlr.de/xsd/netconvertConfiguration.xsd">

    <input>
        <sumo-net-file value="/home/nikitak/cloud/yandex/Documents/City/Проекты/Дороги/реверсивное_движение_Героев_Севастополя/transport_models/proposed_micro/proposed.net.xml"/>
    </input>

    <output>
        <output-file value="/home/nikitak/cloud/yandex/Documents/City/Проекты/Дороги/реверсивное_движение_Героев_Севастополя/transport_models/proposed_micro/proposed.net.xml"/>
    </output>

    <processing>
        <geometry.min-radius.fix.railways value="false"/>
        <geometry.max-grade.fix value="false"/>
        <offset.disable-normalization value="true"/>
        <lefthand value="0"/>
    </processing>

    <junctions>
        <no-turnarounds value="true"/>
        <junctions.corner-detail value="5"/>
        <junctions.limit-turn-speed value="5.50"/>
        <rectangular-lane-cut value="0"/>
    </junctions>

    <pedestrian>
        <walkingareas value="0"/>
    </pedestrian>

</configuration>
-->

<net version="1.9" junctionCornerDetail="5" limitTurnSpeed="5.50" xmlns:xsi="http://www.w3.org/2001/XMLSchema-instance" xsi:noNamespaceSchemaLocation="http://sumo.dlr.de/xsd/net_file.xsd">

    <location netOffset="-541652.66,-4937633.96" convBoundary="8.27,0.00,3356.44,2802.46" origBoundary="28.979318,41.023197,33.567070,44.616216" projParameter="+proj=utm +zone=36 +ellps=WGS84 +datum=WGS84 +units=m +no_defs"/>

    <type id="highway.bridleway" priority="1" numLanes="1" speed="2.78" allow="pedestrian" oneway="1" width="2.00"/>
    <type id="highway.bus_guideway" priority="1" numLanes="1" speed="27.78" allow="bus" oneway="1"/>
    <type id="highway.cycleway" priority="1" numLanes="1" speed="5.56" allow="bicycle" oneway="0" width="1.00"/>
    <type id="highway.footway" priority="1" numLanes="1" speed="2.78" allow="pedestrian" oneway="1" width="2.00"/>
    <type id="highway.ford" priority="1" numLanes="1" speed="2.78" allow="army" oneway="0"/>
    <type id="highway.living_street" priority="2" numLanes="1" speed="2.78" disallow="tram rail_urban rail rail_electric rail_fast ship" oneway="0"/>
    <type id="highway.motorway" priority="14" numLanes="2" speed="39.44" allow="private emergency authority army vip passenger hov taxi bus coach delivery truck trailer motorcycle evehicle custom1 custom2" oneway="1"/>
    <type id="highway.motorway_link" priority="9" numLanes="1" speed="22.22" allow="private emergency authority army vip passenger hov taxi bus coach delivery truck trailer motorcycle evehicle custom1 custom2" oneway="1"/>
    <type id="highway.path" priority="1" numLanes="1" speed="5.56" allow="pedestrian bicycle" oneway="0" width="2.00"/>
    <type id="highway.pedestrian" priority="1" numLanes="1" speed="2.78" allow="pedestrian" oneway="1" width="2.00"/>
    <type id="highway.primary" priority="12" numLanes="2" speed="27.78" disallow="tram rail_urban rail rail_electric rail_fast ship" oneway="0"/>
    <type id="highway.primary_link" priority="7" numLanes="1" speed="22.22" disallow="tram rail_urban rail rail_electric rail_fast ship" oneway="0"/>
    <type id="highway.raceway" priority="15" numLanes="2" speed="83.33" allow="vip" oneway="0"/>
    <type id="highway.residential" priority="3" numLanes="1" speed="13.89" disallow="tram rail_urban rail rail_electric rail_fast ship" oneway="0"/>
    <type id="highway.secondary" priority="11" numLanes="1" speed="27.78" disallow="tram rail_urban rail rail_electric rail_fast ship" oneway="0"/>
    <type id="highway.secondary_link" priority="6" numLanes="1" speed="22.22" disallow="tram rail_urban rail rail_electric rail_fast ship" oneway="0"/>
    <type id="highway.service" priority="1" numLanes="1" speed="5.56" allow="pedestrian delivery bicycle" oneway="0"/>
    <type id="highway.stairs" priority="1" numLanes="1" speed="1.39" allow="pedestrian" oneway="1" width="2.00"/>
    <type id="highway.step" priority="1" numLanes="1" speed="1.39" allow="pedestrian" oneway="1" width="2.00"/>
    <type id="highway.steps" priority="1" numLanes="1" speed="1.39" allow="pedestrian" oneway="1" width="2.00"/>
    <type id="highway.tertiary" priority="10" numLanes="1" speed="22.22" disallow="tram rail_urban rail rail_electric rail_fast ship" oneway="0"/>
    <type id="highway.tertiary_link" priority="5" numLanes="1" speed="22.22" disallow="tram rail_urban rail rail_electric rail_fast ship" oneway="0"/>
    <type id="highway.track" priority="1" numLanes="1" speed="5.56" allow="pedestrian motorcycle moped bicycle" oneway="0"/>
    <type id="highway.trunk" priority="13" numLanes="2" speed="27.78" disallow="pedestrian bicycle tram rail_urban rail rail_electric rail_fast ship" oneway="0"/>
    <type id="highway.trunk_link" priority="8" numLanes="1" speed="22.22" disallow="pedestrian bicycle tram rail_urban rail rail_electric rail_fast ship" oneway="0"/>
    <type id="highway.unclassified" priority="4" numLanes="1" speed="13.89" disallow="tram rail_urban rail rail_electric rail_fast ship" oneway="0"/>
    <type id="highway.unsurfaced" priority="1" numLanes="1" speed="8.33" disallow="tram rail_urban rail rail_electric rail_fast ship" oneway="0"/>
    <type id="railway.highspeed" priority="21" numLanes="1" speed="69.44" allow="rail_fast" oneway="1"/>
    <type id="railway.light_rail" priority="19" numLanes="1" speed="27.78" allow="rail_urban" oneway="1"/>
    <type id="railway.preserved" priority="16" numLanes="1" speed="27.78" allow="rail" oneway="1"/>
    <type id="railway.rail" priority="20" numLanes="1" speed="44.44" allow="rail" oneway="1"/>
    <type id="railway.subway" priority="18" numLanes="1" speed="27.78" allow="rail_urban" oneway="1"/>
    <type id="railway.tram" priority="17" numLanes="1" speed="13.89" allow="tram" oneway="1"/>

    <edge id=":1059256463_0" function="internal">
        <lane id=":1059256463_0_0" index="0" disallow="tram rail_urban rail rail_electric rail_fast ship" speed="15.28" length="46.43" shape="1372.07,1674.61 1326.56,1664.97"/>
        <lane id=":1059256463_0_1" index="1" disallow="tram rail_urban rail rail_electric rail_fast ship" speed="15.28" length="46.43" shape="1372.07,1674.61 1327.51,1661.91"/>
    </edge>
    <edge id=":1059256463_2" function="internal">
        <lane id=":1059256463_2_0" index="0" disallow="tram rail_urban rail rail_electric rail_fast ship" speed="15.28" length="46.29" shape="1328.45,1658.86 1336.19,1660.63 1349.28,1663.27 1363.29,1666.09 1373.78,1668.44"/>
        <lane id=":1059256463_2_1" index="1" disallow="tram rail_urban rail rail_electric rail_fast ship" speed="15.28" length="46.29" shape="1328.45,1658.86 1372.92,1671.53"/>
    </edge>
    <edge id=":1059973821_0" function="internal">
        <lane id=":1059973821_0_0" index="0" disallow="tram rail_urban rail rail_electric rail_fast ship" speed="15.28" length="1.57" shape="870.12,1496.79 869.67,1496.66 869.37,1496.55 869.08,1496.42 868.67,1496.20"/>
    </edge>
    <edge id=":1059973821_1" function="internal">
        <lane id=":1059973821_1_0" index="0" disallow="tram rail_urban rail rail_electric rail_fast ship" speed="15.28" length="0.63" shape="871.65,1490.54 871.74,1490.58 871.79,1490.61 871.85,1490.63 871.94,1490.66"/>
        <lane id=":1059973821_1_1" index="1" disallow="tram rail_urban rail rail_electric rail_fast ship" speed="15.28" length="0.63" shape="870.16,1493.37 870.41,1493.50 870.58,1493.58 870.76,1493.64 871.03,1493.73"/>
    </edge>
    <edge id=":10842119565_0" function="internal">
        <lane id=":10842119565_0_0" index="0" disallow="tram rail_urban rail rail_electric rail_fast ship" speed="16.67" length="0.10" shape="1241.03,1300.30 1241.03,1300.30"/>
    </edge>
    <edge id=":10842119565_1" function="internal">
        <lane id=":10842119565_1_0" index="0" disallow="tram rail_urban rail rail_electric rail_fast ship" speed="16.67" length="0.10" shape="1237.93,1299.48 1237.93,1299.48"/>
    </edge>
    <edge id=":1671860667_0" function="internal">
        <lane id=":1671860667_0_0" index="0" disallow="tram rail_urban rail rail_electric rail_fast ship" speed="16.67" length="0.10" shape="983.30,1530.00 983.38,1530.03"/>
    </edge>
    <edge id=":1671860667_1" function="internal">
        <lane id=":1671860667_1_0" index="0" disallow="tram rail_urban rail rail_electric rail_fast ship" speed="16.67" length="0.16" shape="985.15,1523.88 985.37,1523.95"/>
        <lane id=":1671860667_1_1" index="1" disallow="tram rail_urban rail rail_electric rail_fast ship" speed="16.67" length="0.16" shape="984.26,1526.95 984.34,1526.98"/>
    </edge>
    <edge id=":1782386918_0" function="internal">
        <lane id=":1782386918_0_0" index="0" disallow="tram rail_urban rail rail_electric rail_fast ship" speed="16.67" length="0.28" shape="1233.29,1329.57 1233.23,1329.84"/>
    </edge>
    <edge id=":1782386918_1" function="internal">
        <lane id=":1782386918_1_0" index="0" disallow="tram rail_urban rail rail_electric rail_fast ship" speed="3.65" length="2.34" shape="1233.29,1329.57 1232.21,1330.52 1231.34,1330.70"/>
    </edge>
    <edge id=":1782386918_4" function="internal">
        <lane id=":1782386918_4_0" index="0" disallow="tram rail_urban rail rail_electric rail_fast ship" speed="3.65" length="2.34" shape="1231.34,1330.70 1230.67,1330.11 1230.20,1328.75"/>
    </edge>
    <edge id=":1782386918_2" function="internal">
        <lane id=":1782386918_2_0" index="0" disallow="tram rail_urban rail rail_electric rail_fast ship" speed="16.67" length="0.31" shape="1230.12,1329.05 1230.20,1328.75"/>
    </edge>
    <edge id=":1782386918_3" function="internal">
        <lane id=":1782386918_3_0" index="0" disallow="tram rail_urban rail rail_electric rail_fast ship" speed="3.65" length="2.34" shape="1230.12,1329.05 1231.19,1328.08 1232.07,1327.89"/>
    </edge>
    <edge id=":1782386918_5" function="internal">
        <lane id=":1782386918_5_0" index="0" disallow="tram rail_urban rail rail_electric rail_fast ship" speed="3.65" length="2.34" shape="1232.07,1327.89 1232.74,1328.48 1233.23,1329.84"/>
    </edge>
    <edge id=":1782386927_0" function="internal">
        <lane id=":1782386927_0_0" index="0" disallow="tram rail_urban rail rail_electric rail_fast ship" speed="16.67" length="0.13" shape="1232.10,1634.97 1231.91,1634.91"/>
        <lane id=":1782386927_0_1" index="1" disallow="tram rail_urban rail rail_electric rail_fast ship" speed="16.67" length="0.13" shape="1233.08,1631.92 1233.02,1631.90"/>
    </edge>
    <edge id=":1782386927_2" function="internal">
        <lane id=":1782386927_2_0" index="0" disallow="tram rail_urban rail rail_electric rail_fast ship" speed="16.67" length="0.10" shape="1234.12,1628.90 1234.06,1628.88"/>
    </edge>
    <edge id=":1843819087_0" function="internal">
        <lane id=":1843819087_0_0" index="0" disallow="tram rail_urban rail rail_electric rail_fast ship" speed="16.67" length="0.16" shape="1221.88,1374.68 1221.84,1374.84"/>
    </edge>
    <edge id=":1843819087_1" function="internal">
        <lane id=":1843819087_1_0" index="0" disallow="tram rail_urban rail rail_electric rail_fast ship" speed="16.67" length="0.29" shape="1218.71,1374.18 1218.78,1373.90"/>
    </edge>
    <edge id=":1857428297_0" function="internal">
        <lane id=":1857428297_0_0" index="0" disallow="tram rail_urban rail rail_electric rail_fast ship" speed="16.67" length="21.25" shape="1171.08,1612.54 1164.88,1609.72 1160.07,1606.73 1156.15,1604.03 1152.63,1602.08"/>
    </edge>
    <edge id=":1857428297_1" function="internal">
        <lane id=":1857428297_1_0" index="0" disallow="tram rail_urban rail rail_electric rail_fast ship" speed="9.63" length="6.78" shape="1172.18,1609.54 1166.12,1606.51"/>
    </edge>
    <edge id=":1857428297_6" function="internal">
        <lane id=":1857428297_6_0" index="0" disallow="tram rail_urban rail rail_electric rail_fast ship" speed="9.63" length="15.14" shape="1166.12,1606.51 1162.47,1602.77 1161.24,1598.32 1162.42,1593.15"/>
    </edge>
    <edge id=":1857428297_2" function="internal">
        <lane id=":1857428297_2_0" index="0" disallow="tram rail_urban rail rail_electric rail_fast ship" speed="7.04" length="11.19" shape="1171.24,1596.95 1170.13,1600.41 1170.10,1603.16 1171.15,1605.20 1173.28,1606.54"/>
    </edge>
    <edge id=":1857428297_3" function="internal">
        <lane id=":1857428297_3_0" index="0" disallow="tram rail_urban rail rail_electric rail_fast ship" speed="8.71" length="16.74" shape="1165.36,1594.42 1162.79,1599.00 1159.81,1601.80 1156.43,1602.83 1152.63,1602.08"/>
    </edge>
    <edge id=":1857428297_4" function="internal">
        <lane id=":1857428297_4_0" index="0" disallow="tram rail_urban rail rail_electric rail_fast ship" speed="6.55" length="9.03" shape="1155.05,1596.16 1157.45,1596.76 1159.47,1596.46 1161.13,1595.26 1162.42,1593.15"/>
    </edge>
    <edge id=":1857428297_5" function="internal">
        <lane id=":1857428297_5_0" index="0" disallow="tram rail_urban rail rail_electric rail_fast ship" speed="16.67" length="20.81" shape="1153.84,1599.12 1173.28,1606.54"/>
    </edge>
    <edge id=":1891162265_0" function="internal">
        <lane id=":1891162265_0_0" index="0" disallow="tram rail_urban rail rail_electric rail_fast ship" speed="16.67" length="0.15" shape="414.49,781.64 414.46,781.68 414.44,781.70 414.43,781.73 414.40,781.77"/>
    </edge>
    <edge id=":1891162265_1" function="internal">
        <lane id=":1891162265_1_0" index="0" disallow="tram rail_urban rail rail_electric rail_fast ship" speed="16.67" length="0.44" shape="411.68,780.09 411.75,779.97 411.80,779.90 411.85,779.83 411.93,779.72"/>
    </edge>
    <edge id=":2973365690_0" function="internal">
        <lane id=":2973365690_0_0" index="0" disallow="tram rail_urban rail rail_electric rail_fast ship" speed="16.67" length="8.42" shape="505.40,1019.25 503.31,1017.86 501.44,1017.54 499.58,1017.21 497.49,1015.81"/>
        <lane id=":2973365690_0_1" index="1" disallow="tram rail_urban rail rail_electric rail_fast ship" speed="16.67" length="8.42" shape="505.40,1019.25 499.77,1013.56"/>
    </edge>
    <edge id=":2973365690_2" function="internal">
        <lane id=":2973365690_2_0" index="0" disallow="tram rail_urban rail rail_electric rail_fast ship" speed="16.67" length="7.99" shape="504.33,1009.07 509.94,1014.74"/>
        <lane id=":2973365690_2_1" index="1" disallow="tram rail_urban rail rail_electric rail_fast ship" speed="16.67" length="7.99" shape="502.05,1011.32 507.67,1017.00"/>
    </edge>
    <edge id=":4086094571_0" function="internal">
        <lane id=":4086094571_0_0" index="0" disallow="tram rail_urban rail rail_electric rail_fast ship" speed="16.67" length="0.26" shape="1055.51,1557.32 1055.27,1557.21"/>
    </edge>
    <edge id=":4086094571_1" function="internal">
        <lane id=":4086094571_1_0" index="0" disallow="tram rail_urban rail rail_electric rail_fast ship" speed="16.67" length="0.31" shape="1057.85,1551.35 1058.15,1551.48"/>
        <lane id=":4086094571_1_1" index="1" disallow="tram rail_urban rail rail_electric rail_fast ship" speed="16.67" length="0.31" shape="1056.56,1554.28 1056.83,1554.40"/>
    </edge>
    <edge id=":4086950690_0" function="internal">
        <lane id=":4086950690_0_0" index="0" allow="pedestrian delivery bicycle" speed="3.65" length="4.67" shape="81.70,957.72 80.97,956.47 80.96,955.58 81.67,955.03 83.10,954.84"/>
    </edge>
    <edge id=":4087559842_0" function="internal">
        <lane id=":4087559842_0_0" index="0" disallow="tram rail_urban rail rail_electric rail_fast ship" speed="16.67" length="0.31" shape="1288.93,1653.21 1288.63,1653.12"/>
        <lane id=":4087559842_0_1" index="1" disallow="tram rail_urban rail rail_electric rail_fast ship" speed="16.67" length="0.31" shape="1289.89,1650.16 1289.61,1650.07"/>
    </edge>
    <edge id=":4087559842_2" function="internal">
        <lane id=":4087559842_2_0" index="0" disallow="tram rail_urban rail rail_electric rail_fast ship" speed="16.67" length="0.27" shape="1290.58,1647.02 1290.84,1647.11"/>
    </edge>
    <edge id=":4557643190_0" function="internal">
        <lane id=":4557643190_0_0" index="0" disallow="tram rail_urban rail rail_electric rail_fast ship" speed="16.67" length="0.31" shape="1251.31,1261.30 1251.23,1261.60"/>
    </edge>
    <edge id=":4557643190_1" function="internal">
        <lane id=":4557643190_1_0" index="0" disallow="tram rail_urban rail rail_electric rail_fast ship" speed="16.67" length="0.23" shape="1248.14,1260.78 1248.19,1260.56"/>
    </edge>
    <edge id=":5463076237_0" function="internal">
        <lane id=":5463076237_0_0" index="0" allow="pedestrian delivery bicycle" speed="3.65" length="4.67" shape="99.35,962.80 100.08,964.05 100.09,964.94 99.38,965.49 97.95,965.68"/>
    </edge>
    <edge id=":5584350391_0" function="internal">
        <lane id=":5584350391_0_0" index="0" disallow="tram rail_urban rail rail_electric rail_fast ship" speed="16.67" length="0.10" shape="702.73,1246.35 702.73,1246.35"/>
    </edge>
    <edge id=":5584350391_1" function="internal">
        <lane id=":5584350391_1_0" index="0" disallow="tram rail_urban rail rail_electric rail_fast ship" speed="16.67" length="0.10" shape="708.01,1242.72 708.01,1242.72"/>
        <lane id=":5584350391_1_1" index="1" disallow="tram rail_urban rail rail_electric rail_fast ship" speed="16.67" length="0.10" shape="705.37,1244.53 705.37,1244.53"/>
    </edge>
    <edge id=":6070087841_0" function="internal">
        <lane id=":6070087841_0_0" index="0" disallow="tram rail_urban rail rail_electric rail_fast ship" speed="15.28" length="0.96" shape="822.57,1471.90 822.31,1471.76 822.14,1471.66 821.98,1471.56 821.74,1471.40"/>
    </edge>
    <edge id=":6070087841_1" function="internal">
        <lane id=":6070087841_1_0" index="0" disallow="tram rail_urban rail rail_electric rail_fast ship" speed="15.28" length="0.39" shape="825.39,1466.13 825.43,1466.17 825.47,1466.19 825.50,1466.21 825.55,1466.23"/>
        <lane id=":6070087841_1_1" index="1" disallow="tram rail_urban rail rail_electric rail_fast ship" speed="15.28" length="0.39" shape="823.56,1468.76 823.71,1468.86 823.80,1468.93 823.91,1468.98 824.06,1469.06"/>
    </edge>
    <edge id=":6118392601_0" function="internal">
        <lane id=":6118392601_0_0" index="0" disallow="tram rail_urban rail rail_electric rail_fast ship" speed="16.67" length="22.31" shape="1195.19,1498.91 1195.11,1502.96 1196.00,1508.00 1196.55,1514.19 1195.44,1521.70"/>
        <lane id=":6118392601_0_1" index="1" allow="bus" speed="16.67" length="22.31" shape="1195.19,1498.91 1194.61,1502.87 1194.43,1507.68 1193.92,1513.59 1192.37,1520.81"/>
        <lane id=":6118392601_0_2" index="2" disallow="tram rail_urban rail rail_electric rail_fast ship" speed="16.67" length="22.31" shape="1195.19,1498.91 1189.30,1519.92"/>
    </edge>
    <edge id=":6118392601_3" function="internal">
        <lane id=":6118392601_3_0" index="0" disallow="tram rail_urban rail rail_electric rail_fast ship" speed="16.67" length="21.92" shape="1186.22,1519.03 1192.14,1497.92"/>
    </edge>
    <edge id=":6611999669_0" function="internal">
        <lane id=":6611999669_0_0" index="0" disallow="tram rail_urban rail rail_electric rail_fast ship" speed="15.28" length="0.35" shape="457.05,724.95 456.85,725.24"/>
    </edge>
    <edge id=":6611999669_1" function="internal">
        <lane id=":6611999669_1_0" index="0" disallow="tram rail_urban rail rail_electric rail_fast ship" speed="15.28" length="0.12" shape="454.29,723.32 454.36,723.23"/>
    </edge>
    <edge id=":6612032425_0" function="internal">
        <lane id=":6612032425_0_0" index="0" disallow="tram rail_urban rail rail_electric rail_fast ship" speed="16.67" length="8.81" shape="440.38,957.69 439.02,955.58 438.73,953.71 438.44,951.84 437.08,949.73"/>
    </edge>
    <edge id=":6612032425_1" function="internal">
        <lane id=":6612032425_1_0" index="0" disallow="tram rail_urban rail rail_electric rail_fast ship" speed="16.67" length="8.40" shape="439.37,947.49 441.45,948.90 443.31,949.23 445.17,949.57 447.25,950.98"/>
        <lane id=":6612032425_1_1" index="1" disallow="tram rail_urban rail rail_electric rail_fast ship" speed="16.67" length="8.40" shape="439.37,947.49 444.96,953.21"/>
    </edge>
    <edge id=":7212418740_0" function="internal">
        <lane id=":7212418740_0_0" index="0" disallow="tram rail_urban rail rail_electric rail_fast ship" speed="16.67" length="0.15" shape="553.34,1067.49 553.23,1067.38"/>
    </edge>
    <edge id=":7212418740_1" function="internal">
        <lane id=":7212418740_1_0" index="0" disallow="tram rail_urban rail rail_electric rail_fast ship" speed="16.67" length="0.15" shape="557.77,1062.87 557.87,1062.98"/>
        <lane id=":7212418740_1_1" index="1" disallow="tram rail_urban rail rail_electric rail_fast ship" speed="16.67" length="0.15" shape="555.50,1065.13 555.60,1065.23"/>
    </edge>

    <edge id="-1165659728#0" from="1782386918" to="10842119565" priority="12" type="highway.primary">
        <lane id="-1165659728#0_0" index="0" disallow="tram rail_urban rail rail_electric rail_fast ship" speed="16.67" length="30.27" shape="1230.20,1328.75 1237.93,1299.48"/>
    </edge>
    <edge id="-1165659728#1" from="1843819087" to="1782386918" priority="12" type="highway.primary">
        <lane id="-1165659728#1_0" index="0" disallow="tram rail_urban rail rail_electric rail_fast ship" speed="16.67" length="46.26" shape="1218.78,1373.90 1230.12,1329.05"/>
    </edge>
    <edge id="-1165659728#2" from="6118392601" to="1843819087" priority="12" type="highway.primary" shape="1188.87,1515.63 1195.43,1492.06 1220.30,1374.40">
        <lane id="-1165659728#2_0" index="0" disallow="tram rail_urban rail rail_electric rail_fast ship" speed="16.67" length="126.58" shape="1192.14,1497.92 1193.88,1491.68 1218.71,1374.18"/>
    </edge>
    <edge id="-154286445#2" from="4557643190" to="2957703804" priority="12" type="highway.primary">
        <lane id="-154286445#2_0" index="0" disallow="tram rail_urban rail rail_electric rail_fast ship" speed="16.67" length="138.83" shape="1248.19,1260.56 1280.13,1125.45"/>
    </edge>
    <edge id="-154286445#3" from="10842119565" to="4557643190" priority="12" type="highway.primary">
        <lane id="-154286445#3_0" index="0" disallow="tram rail_urban rail rail_electric rail_fast ship" speed="16.67" length="40.02" shape="1237.93,1299.48 1248.14,1260.78"/>
    </edge>
    <edge id="-301445397" from="1782386927" to="1857428297" priority="11" type="highway.secondary">
        <lane id="-301445397_0" index="0" disallow="tram rail_urban rail rail_electric rail_fast ship" speed="16.67" length="64.82" shape="1231.91,1634.91 1171.08,1612.54"/>
        <lane id="-301445397_1" index="1" disallow="tram rail_urban rail rail_electric rail_fast ship" speed="16.67" length="64.82" shape="1233.02,1631.90 1172.18,1609.54"/>
    </edge>
    <edge id="-404536721" from="1671860667" to="1059973821" priority="12" type="highway.primary" shape="983.82,1528.49 936.75,1514.97 869.97,1495.08">
        <lane id="-404536721_0" index="0" disallow="tram rail_urban rail rail_electric rail_fast ship" speed="16.67" length="118.04" shape="983.38,1530.03 936.30,1516.51 870.12,1496.79"/>
    </edge>
    <edge id="-406553247" from="4086094571" to="1671860667" priority="12" type="highway.primary" shape="1056.04,1555.80 1036.80,1547.33 1029.11,1543.95 983.82,1528.49">
        <lane id="-406553247_0" index="0" disallow="tram rail_urban rail rail_electric rail_fast ship" speed="16.67" length="77.00" shape="1055.27,1557.21 1036.16,1548.79 1028.53,1545.44 983.30,1530.00"/>
    </edge>
    <edge id="-406553392" from="1857428297" to="4086094571" priority="12" type="highway.primary" shape="1159.79,1603.28 1151.96,1600.08 1122.73,1585.81 1119.88,1584.69 1056.04,1555.80">
        <lane id="-406553392_0" index="0" disallow="tram rail_urban rail rail_electric rail_fast ship" speed="16.67" length="106.96" shape="1152.63,1602.08 1151.31,1601.54 1122.09,1587.28 1119.26,1586.16 1055.51,1557.32"/>
    </edge>
    <edge id="-406645743#0" from="5463076237" to="4086950690" priority="1" type="highway.service">
        <lane id="-406645743#0_0" index="0" allow="pedestrian delivery bicycle" speed="5.56" length="18.09" shape="97.95,965.68 81.70,957.72"/>
    </edge>
    <edge id="-553906738#0" from="7212418740" to="2973365690" priority="12" type="highway.primary" shape="554.47,1066.36 539.00,1050.80 518.51,1030.17 503.72,1015.29">
        <lane id="-553906738#0_0" index="0" disallow="tram rail_urban rail rail_electric rail_fast ship" speed="16.67" length="67.85" shape="553.23,1067.38 537.87,1051.93 517.37,1031.30 505.40,1019.25"/>
    </edge>
    <edge id="-553906738#1" from="5584350391" to="7212418740" priority="12" type="highway.primary" shape="704.05,1245.44 653.13,1171.34 650.56,1168.31 618.18,1130.07 577.87,1089.91 554.47,1066.36">
        <lane id="-553906738#1_0" index="0" disallow="tram rail_urban rail rail_electric rail_fast ship" speed="16.67" length="233.80" shape="702.73,1246.35 651.86,1172.31 649.34,1169.34 617.00,1131.16 576.74,1091.04 553.34,1067.49"/>
    </edge>
    <edge id="-553907051" from="4087559842" to="1782386927" priority="11" type="highway.secondary">
        <lane id="-553907051_0" index="0" disallow="tram rail_urban rail rail_electric rail_fast ship" speed="16.67" length="59.37" shape="1288.63,1653.12 1232.10,1634.97"/>
        <lane id="-553907051_1" index="1" disallow="tram rail_urban rail rail_electric rail_fast ship" speed="16.67" length="59.37" shape="1289.61,1650.07 1233.08,1631.92"/>
    </edge>
    <edge id="-553907632" from="1059256463" to="4087559842" priority="11" type="highway.secondary">
        <lane id="-553907632_0" index="0" disallow="tram rail_urban rail rail_electric rail_fast ship" speed="16.67" length="39.41" shape="1326.56,1664.97 1288.93,1653.21"/>
        <lane id="-553907632_1" index="1" disallow="tram rail_urban rail rail_electric rail_fast ship" speed="16.67" length="39.41" shape="1327.51,1661.91 1289.89,1650.16"/>
    </edge>
    <edge id="-632196850" from="6070087841" to="5584350391" priority="12" type="highway.primary" shape="822.97,1470.30 816.50,1465.82 803.51,1452.84 792.35,1437.90 783.58,1424.03 773.41,1397.08 760.95,1352.72 755.24,1332.69 747.71,1314.18 735.66,1292.96 719.28,1267.61 704.05,1245.44">
        <lane id="-632196850_0" index="0" disallow="tram rail_urban rail rail_electric rail_fast ship" speed="16.67" length="258.66" shape="821.74,1471.40 815.47,1467.05 802.30,1453.89 791.03,1438.81 782.14,1424.75 771.89,1397.58 759.41,1353.15 753.73,1333.21 746.27,1314.88 734.29,1293.79 717.95,1268.50 702.73,1246.35"/>
    </edge>
    <edge id="-652690782" from="1857428297" to="6118392601" priority="12" type="highway.primary" shape="1159.79,1603.28 1161.65,1598.96 1171.00,1577.37 1188.87,1515.63">
        <lane id="-652690782_0" index="0" disallow="tram rail_urban rail rail_electric rail_fast ship" speed="16.67" length="77.96" shape="1162.42,1593.15 1169.49,1576.83 1186.22,1519.03"/>
    </edge>
    <edge id="-706296020" from="6612032425" to="1891162265" priority="12" type="highway.primary" shape="441.02,951.47 428.06,938.20 413.98,918.15 406.85,904.27 400.21,885.70 395.88,869.49 393.89,857.33 393.24,843.21 394.55,827.81 398.10,809.94 405.16,794.29 409.91,786.00 413.12,780.80">
        <lane id="-706296020_0" index="0" disallow="tram rail_urban rail rail_electric rail_fast ship" speed="16.67" length="186.10" shape="437.08,949.73 426.82,939.23 412.61,918.98 405.38,904.91 398.68,886.18 394.31,869.83 392.30,857.50 391.64,843.18 392.96,827.59 396.57,809.45 403.73,793.56 408.53,785.18 411.68,780.09"/>
    </edge>
    <edge id="-706296022" from="1891162265" to="6611999669" priority="12" type="highway.primary" shape="413.12,780.80 438.28,747.37 455.64,724.19">
        <lane id="-706296022_0" index="0" disallow="tram rail_urban rail rail_electric rail_fast ship" speed="16.67" length="70.53" shape="411.93,779.72 437.00,746.41 454.29,723.32"/>
    </edge>
    <edge id="-814880024" from="2973365690" to="6612032425" priority="12" type="highway.primary" shape="503.72,1015.29 461.19,972.11 441.02,951.47">
        <lane id="-814880024_0" index="0" disallow="tram rail_urban rail rail_electric rail_fast ship" speed="16.67" length="81.48" shape="497.49,1015.81 457.76,975.47 440.38,957.69"/>
        <lane id="-814880024_1" index="1" disallow="tram rail_urban rail rail_electric rail_fast ship" speed="16.67" length="81.48" shape="499.77,1013.56 460.05,973.23 442.67,955.45"/>
    </edge>
    <edge id="-E0" from="6070087841" to="1059973821" priority="-1">
        <lane id="-E0_0" index="0" speed="13.89" length="52.12" shape="825.55,1466.23 871.65,1490.54"/>
        <lane id="-E0_1" index="1" speed="13.89" length="52.12" shape="824.06,1469.06 870.16,1493.37"/>
    </edge>
    <edge id="-E3" from="J0" to="6611999669" priority="-1" shape="534.24,472.46 541.42,511.58 535.60,563.74 516.28,616.09 495.82,661.46 455.64,724.19">
        <lane id="-E3_0" index="0" speed="13.89" length="273.41" shape="535.81,472.17 543.04,511.52 537.17,564.11 517.76,616.70 497.23,662.22 457.05,724.95"/>
    </edge>
    <edge id="-E7" from="J1" to="1059256463" priority="-1">
        <lane id="-E7_0" index="0" speed="13.89" length="80.06" shape="1449.55,1694.75 1372.07,1674.61"/>
    </edge>
    <edge id="1165659728#0" from="10842119565" to="1782386918" priority="12" type="highway.primary">
        <lane id="1165659728#0_0" index="0" disallow="tram rail_urban rail rail_electric rail_fast ship" speed="16.67" length="30.27" shape="1241.03,1300.30 1233.29,1329.57"/>
    </edge>
    <edge id="1165659728#1" from="1782386918" to="1843819087" priority="12" type="highway.primary">