<?xml version="1.0" encoding="UTF-8"?>

<!-- generated on 2023-05-23 10:51:04 by Eclipse SUMO netedit Version 1.15.0
-->

<routes xmlns:xsi="http://www.w3.org/2001/XMLSchema-instance" xsi:noNamespaceSchemaLocation="http://sumo.dlr.de/xsd/routes_file.xsd">
    <!-- VTypes -->
    <vType id="DEFAULT_VEHTYPE" maxSpeed="45.00" emissionClass="HBEFA3/PC_G_EU5"/>
    <!-- Routes -->
    <flow id="flow_0" begin="0.00" from="154286445#2" to="E3" via="652690782" end="3600.00" vehsPerHour="1500"/>
    <flow id="flow_1" begin="0.00" from="-E7" to="E3" via="-301445397" end="3600.00" vehsPerHour="1500"/>
</routes>
